workspace/SGsim/simulations/simplenetwork1/example1_VLN.Txt

SYMMETRICAL COMPONENT VOLTAGES BY BUS (for 3-phase buses)

Bus        Mag:   V1 (kV)    p.u.     V2 (kV)   %V2/V1    V0 (kV)    %V0/V1

sourcebus     6.351          1  3.104E-009  4.887E-008 4.131E-010 6.505E-009
b0           0.2424       1.05  1.185E-010  4.887E-008 1.577E-011 6.505E-009
b1           0.2401       1.04  1.173E-010  4.887E-008 1.569E-011 6.532E-009
b2             0.24      1.039  1.173E-010  4.887E-008 1.568E-011 6.533E-009
b3             0.24      1.039  1.173E-010  4.887E-008 1.568E-011 6.534E-009
b4           0.2399      1.039  1.172E-010  4.887E-008 1.568E-011 6.535E-009
b5           0.2399      1.039  1.172E-010  4.887E-008 1.568E-011 6.535E-009
b6           0.2399      1.039  1.172E-010  4.887E-008 1.568E-011 6.535E-009
